test
 OpenBabel08222215263D

 17 16  0  0  0  0  0  0  0  0999 V2000
    0.9307   -0.0311   -0.0651 C   0  0  0  0  0  0  0  0  0  0  0  0
    0.4214   -0.4462   -1.4445 C   0  0  0  0  0  0  0  0  0  0  0  0
    0.4214   -1.0181    0.9841 C   0  0  0  0  0  0  0  0  0  0  0  0
    0.4214    1.3711    0.2651 C   0  0  0  0  0  0  0  0  0  0  0  0
    2.4586   -0.0311   -0.0651 C   0  0  0  0  0  0  0  0  0  0  0  0
   -0.6743   -0.4546   -1.4725 H   0  0  0  0  0  0  0  0  0  0  0  0
    0.7728   -1.4507   -1.7071 H   0  0  0  0  0  0  0  0  0  0  0  0
    0.7728    0.2465   -2.2179 H   0  0  0  0  0  0  0  0  0  0  0  0
   -0.6743   -1.0382    1.0055 H   0  0  0  0  0  0  0  0  0  0  0  0
    0.7728   -0.7433    1.9853 H   0  0  0  0  0  0  0  0  0  0  0  0
    0.7728   -2.0342    0.7709 H   0  0  0  0  0  0  0  0  0  0  0  0
   -0.6743    1.3996    0.2718 H   0  0  0  0  0  0  0  0  0  0  0  0
    0.7728    2.1008   -0.4735 H   0  0  0  0  0  0  0  0  0  0  0  0
    0.7728    1.6945    1.2517 H   0  0  0  0  0  0  0  0  0  0  0  0
    2.8515   -1.0271   -0.2996 H   0  0  0  0  0  0  0  0  0  0  0  0
    2.8515    0.2638    0.9148 H   0  0  0  0  0  0  0  0  0  0  0  0
    2.8515    0.6701   -0.8104 H   0  0  0  0  0  0  0  0  0  0  0  0
  1  2  1  0  0  0  0
  1  3  1  0  0  0  0
  1  4  1  0  0  0  0
  1  5  1  0  0  0  0
  2  6  1  0  0  0  0
  2  7  1  0  0  0  0
  2  8  1  0  0  0  0
  3  9  1  0  0  0  0
  3 10  1  0  0  0  0
  3 11  1  0  0  0  0
  4 12  1  0  0  0  0
  4 13  1  0  0  0  0
  4 14  1  0  0  0  0
  5 15  1  0  0  0  0
  5 16  1  0  0  0  0
  5 17  1  0  0  0  0
M  END
$$$$
